/batch
/config,noeldb,1     ! force off writing results to database
*get,_wallstrt,active,,time,wall
! ANSYS input file written by Workbench version 2022 R1
! File used for geometry attach: F:\墨然的需要\学科竞赛和科研\水下机器人及推进器项目\毕业设计\Ansys校核\啮合校核.STEP
/title,niehe--__ (A5)
! ****** Begin Custom Load Command Snippet ******
/COM, ACT Extensions:
/COM,     LSDYNA, 2021.1
/COM,     5f463412-bd3e-484b-87e7-cbc0a665e474, wbex
/COM,
! ****** End   Custom Load Command Snippet ******
*DIM,_wb_ProjectScratch_dir,string,248
_wb_ProjectScratch_dir(1) = 'F:\_ProjectScratch\Scr673E\'
*DIM,_wb_SolverFiles_dir,string,248
_wb_SolverFiles_dir(1) = 'F:\niehe_files\dp0\SYS\MECH\'
*DIM,_wb_userfiles_dir,string,248
_wb_userfiles_dir(1) = 'F:\niehe_files\user_files\'
/com,--- Data in consistent MKS units. See Solving Units in the help system for more information.
/units,MKS
/nopr
/wb,file,start              !  signify a WB generated input file
/prep7
! Turn off shape checking because checks already performed inside WB mesher.
! See help system for more information.
SHPP,OFF,,NOWARN
/nolist
etcon,set             ! allow ANSYS to choose best KEYOP's for 180x elements, resets any applicable keyopt to MAPDL defaults
/com,*********** Nodes for the whole assembly ***********
nblock,3,,21221
(1i9,3e20.9e3)
        1     9.641862784E-02     9.368548013E-19    -1.130655295E-01
        2     1.016515360E-01     0.000000000E+00    -1.274428266E-01
        3     9.716340246E-02    -5.345565271E-03    -1.151117809E-01
        4     9.915925033E-02    -7.641380698E-03    -1.205953279E-01
        5     1.008218108E-01    -5.588545886E-03    -1.251631753E-01
        6     1.014332471E-01    -3.059026139E-03    -1.268430826E-01
        7     1.001773983E-01     9.368548013E-19    -1.116974489E-01
        8     1.054103065E-01     0.000000000E+00    -1.260747460E-01
        9     1.009437400E-01    -5.409366876E-03    -1.138029553E-01
       10     1.029214327E-01    -7.640900229E-03    -1.192366213E-01
       11     1.045772860E-01    -5.597536811E-03    -1.237860410E-01
       12    -6.800000000E-02     0.000000000E+00     2.510000000E-02
       13     6.800000000E-02     8.327598234E-18     2.510000000E-02
       14    -6.736664433E-02    -9.259332139E-03     2.510000000E-02
       15    -6.547837554E-02    -1.834618044E-02     2.510000000E-02
       16    -6.226923611E-02    -2.732292506E-02     2.510000000E-02
       17    -5.729659713E-02    -3.662103163E-02     2.510000000E-02
       18    -5.185719390E-02    -4.398671892E-02     2.510000000E-02
       19    -4.604875252E-02    -5.003511158E-02     2.510000000E-02
       20    -3.818892276E-02    -5.626371991E-02     2.510000000E-02
! ... 19273 like lines cut
/com,*********** Nodes for all Remote Points ***********
nblock,3
(1i9,3e20.9e3)
    19293    -3.100000000E-02     1.419999981E-17     1.159999990E-02
    19294    -3.100000000E-02     1.419999981E-17     1.159999990E-02
    19295     0.000000000E+00     0.000000000E+00     1.750000000E-02
    19296     0.000000000E+00     0.000000000E+00     1.750000000E-02
-1
/wb,elem,start            !  set before creation of elements
/com,*********** Elements for Body 1 "___2" ***********
et,1,187
eblock,19,solid,,6057
(19i9)
        1        1        1        1        0        0        0        0       10        0        1      884     1775     1255     1398     7453     9122     7447     7448
     9837     9120
        1        1        1        1        0        0        0        0       10        0        2      884     1255     1775     1025     7447     9122     7453     7444
     7878     7885
        1        1        1        1        0        0        0        0       10        0        3      884     1775     1398     1771     7453     9837     7448     7452
    11070     9836
        1        1        1        1        0        0        0        0       10        0        4      884     1405     1775     1771     7449     9861     7453     7452
     9860    11070
        1        1        1        1        0        0        0        0       10        0        5      828     1775     1405     1771     7027     9861     7021     7026
    11070     9860
        1        1        1        1        0        0        0        0       10        0        6      828     1405     1775     1569     7021     9861     7027     7024
     9858    10630
        1        1        1        1        0        0        0        0       10        0        7      884     1775     1405     1569     7453     9861     7449     7451
    10630     9858
        1        1        1        1        0        0        0        0       10        0        8      884     1025     1775     1569     7444     7885     7453     7451
     7883    10630
        1        1        1        1        0        0        0        0       10        0        9     1255     1775     1390     1398     9122     9807     9119     9120
     9837     9802
        1        1        1        1        0        0        0        0       10        0       10     1025     1255     1775     1390     7878     9122     7885     7880
     9119     9807
! ... 12095 like lines cut
!Material Id = {D04086D7-72B4-415C-ADDB-FF1B916A7B75}
/com,*********** Elements for Body 2 "___1" ***********
et,2,187
eblock,19,solid,,4697
(19i9)
        2        2        2        2        0        0        0        0       10        0     6058    12169    12317    12285    12307    18996    19222    18994    18995
    19248    19220
        2        2        2        2        0        0        0        0       10        0     6059    11968    12047    12317    12169    18085    18508    18091    18088
    18507    18996
        2        2        2        2        0        0        0        0       10        0     6060    11456    12316    11457    12286    15270    15277    15264    15269
    19224    15276
        2        2        2        2        0        0        0        0       10        0     6061    11456    12278    12316    12286    15268    19207    15270    15269
    19206    19224
        2        2        2        2        0        0        0        0       10        0     6062    11263    12314    11265    11264    13796    13807    13793    13792
    13799    13797
        2        2        2        2        0        0        0        0       10        0     6063    11631    11633    12314    11893    16304    16312    16306    16305
    16311    17702
        2        2        2        2        0        0        0        0       10        0     6064    11263    11631    12314    11264    13794    16306    13796    13792
    13798    13799
        2        2        2        2        0        0        0        0       10        0     6065    11263    11633    12314    11631    13795    16312    13796    13794
    16304    16306
        2        2        2        2        0        0        0        0       10        0     6066    11541    12313    11586    11587    15868    16101    15865    15866
    16103    16098
        2        2        2        2        0        0        0        0       10        0     6067    11540    11541    12313    11586    15859    15868    15863    15860
    15865    16101
! ... 9375 like lines cut
!Material Id = {681AE032-791B-4F14-B7FD-9754E0EC710C}
/wb,elem,end               !  done creating elements
/com,*********** Send User Defined Coordinate System(s) ***********
local,12,0,-3.1e-002,1.41999998092651e-017,1.15999999046326e-002,0.,-1.14591559026165e-013,0.
local,13,0,0.,0.,1.75e-002,-180.,0.,-180.
csys,0
toffst,273.15,  ! Temperature offset from absolute zero
/com,*********** Set Reference Temperature ***********
tref,22.
/wb,mat,start              !  starting to send materials
/com,*********** Send Materials ***********
Temperature = 'TEMP' ! Temperature
MP,DENS,1,1030,	! kg m^-3
MP,EX,1,1628000000,	! Pa
MP,NUXY,1,0.4089,
MP,ALPX,1,0.000184,	! C^-1
MP,KXX,1,0.1997,	! W m^-1 C^-1
MP,C,1,1400,	! J kg^-1 C^-1
MP,UVID,1,6228371d-6bf4-4628-8d43-c60418450231
MP,UMID,1,ed833b44-d437-43ce-8714-c0e565f08b60

Temperature = 'TEMP' ! Temperature
MP,DENS,2,1030,	! kg m^-3
MP,EX,2,1628000000,	! Pa
MP,NUXY,2,0.4089,
MP,ALPX,2,0.000184,	! C^-1
MP,KXX,2,0.1997,	! W m^-1 C^-1
MP,C,2,1400,	! J kg^-1 C^-1
MP,UVID,2,6228371d-6bf4-4628-8d43-c60418450231
MP,UMID,2,ed833b44-d437-43ce-8714-c0e565f08b60

/wb,mat,end                !  done sending materials
!************************* Model Summary ********************
!___2,	塑性，ABS（高冲击）,	matid,	1
!___1,	塑性，ABS（高冲击）,	matid,	2
!************************* End Model Summary ********************
! get the diagonal of the bounding box. Needed later for other things
*get,_xmin,node,,mnloc,x
*get,_ymin,node,,mnloc,y
*get,_zmin,node,,mnloc,z
*get,_xmax,node,,mxloc,x
*get,_ymax,node,,mxloc,y
*get,_zmax,node,,mxloc,z
_ASMDIAG=(_xmax-_xmin)*(_xmax-_xmin)+(_ymax-_ymin)*(_ymax-_ymin)+(_zmax-_zmin)*(_zmax-_zmin)
_ASMDIAG=SQRT(_ASMDIAG)
/wb,contact,start          !  starting to send contact
/com,*********** Create Contact "摩擦的 - 主动轮 至 从动轮" ***********
/com,            Real Constant Set For Above Contact Is 4 & 3 
*set,tid,4
*set,cid,3
r,tid
r,cid
et,tid,170
et,cid,174
eblock,10,,,134
(15i9)
    15193        4        4        4        0    11237    12352    11238    11238    13578    13587    11238    13566
    15194        4        4        4        0    11237    11486    12352    12352    13568    15538    12352    13578
    15195        4        4        4        0    11486    11485    12352    12352    15518    15523    12352    15538
    15196        4        4        4        0    11236    11235    12334    12334    13545    13550    12334    13565
    15197        4        4        4        0    11487    12334    11488    11488    15550    15560    11488    15540
    15198        4        4        4        0    11487    11236    12334    12334    13553    13565    12334    15550
    15199        4        4        4        0    11483    11241    11484    11484    13599    13600    11484    15504
    15200        4        4        4        0    11483    11242    11241    11241    13611    13597    11241    13599
    15201        4        4        4        0    11243    11481    11244    11244    13623    13636    11244    13621
    15202        4        4        4        0    11243    11482    11481    11481    13624    15487    11481    13623
    15203        4        4        4        0    11248    11247    12335    12335    13653    13658    12335    13669
    15204        4        4        4        0    11479    12335    11480    11480    15481    15486    11480    15471
    15205        4        4        4        0    11479    11248    12335    12335    13661    13669    12335    15481
    15206        4        4        4        0    11249    12348    11250    11250    13680    13688    11250    13670
    15207        4        4        4        0    11249    11478    12348    12348    13673    15469    12348    13680
    15208        4        4        4        0    11478    11477    12394    12394    15454    15460    12394    15470
    15209        4        4        4        0    11478    12394    12348    12348    15470    19273    12348    15469
    15210        4        4        4        0    11255    12345    11256    11256    13731    13741    11256    13720
    15211        4        4        4        0    11255    11474    12345    12345    13722    15432    12345    13731
    15212        4        4        4        0    11474    11473    12345    12345    15413    15420    12345    15432
! ... 115 like lines cut
eblock,10,,,134
(15i9)
    15327        3        3        3        0    11237    12352    11238    11238    13578    13587    11238    13566
    15328        3        3        3        0    11237    11486    12352    12352    13568    15538    12352    13578
    15329        3        3        3        0    11486    11485    12352    12352    15518    15523    12352    15538
    15330        3        3        3        0    11236    11235    12334    12334    13545    13550    12334    13565
    15331        3        3        3        0    11487    12334    11488    11488    15550    15560    11488    15540
    15332        3        3        3        0    11487    11236    12334    12334    13553    13565    12334    15550
    15333        3        3        3        0    11483    11241    11484    11484    13599    13600    11484    15504
    15334        3        3        3        0    11483    11242    11241    11241    13611    13597    11241    13599
    15335        3        3        3        0    11243    11481    11244    11244    13623    13636    11244    13621
    15336        3        3        3        0    11243    11482    11481    11481    13624    15487    11481    13623
    15337        3        3        3        0    11248    11247    12335    12335    13653    13658    12335    13669
    15338        3        3        3        0    11479    12335    11480    11480    15481    15486    11480    15471
    15339        3        3        3        0    11479    11248    12335    12335    13661    13669    12335    15481
    15340        3        3        3        0    11249    12348    11250    11250    13680    13688    11250    13670
    15341        3        3        3        0    11249    11478    12348    12348    13673    15469    12348    13680
    15342        3        3        3        0    11478    11477    12394    12394    15454    15460    12394    15470
    15343        3        3        3        0    11478    12394    12348    12348    15470    19273    12348    15469
    15344        3        3        3        0    11255    12345    11256    11256    13731    13741    11256    13720
    15345        3        3        3        0    11255    11474    12345    12345    13722    15432    12345    13731
    15346        3        3        3        0    11474    11473    12345    12345    15413    15420    12345    15432
! ... 115 like lines cut
eblock,10,,,206
(15i9)
    15461        3        4        3        0      686      214      489      489     3588     3585      489     5335
    15462        3        4        3        0      489      214      213      213     3585     3574      213     3578
    15463        3        4        3        0      215      685      684      684     3591     5999      684     3590
    15464        3        4        3        0      215      684      216      216     3590     3593      216     3589
    15465        3        4        3        0      683      218      217      217     3606     3596      217     3598
    15466        3        4        3        0      682      218      683      683     3605     3606      683     5995
    15467        3        4        3        0      681      220      219      219     3612     3608      219     3609
    15468        3        4        3        0      680      220      681      681     3611     3612      681     5986
    15469        3        4        3        0      678      221      679      679     3619     3620      679     5980
    15470        3        4        3        0      678      222      221      221     3627     3617      221     3619
    15471        3        4        3        0      677      224      223      223     3636     3629      223     3630
    15472        3        4        3        0      676      224      677      677     3635     3636      677     5973
    15473        3        4        3        0      674      225      675      675     3641     3642      675     5964
    15474        3        4        3        0      674      226      225      225     3651     3639      225     3641
    15475        3        4        3        0      672      227      673      673     3654     3655      673     5955
    15476        3        4        3        0      672      228      227      227     3658     3653      227     3654
    15477        3        4        3        0      670      229      671      671     3665     3666      671     5949
    15478        3        4        3        0      670      230      229      229     3675     3663      229     3665
    15479        3        4        3        0      668      231      669      669     3678     3679      669     5940
    15480        3        4        3        0      668      232      231      231     3683     3677      231     3678
! ... 187 like lines cut
eblock,10,,,206
(15i9)
    15667        4        3        4        0      686      214      489      489     3588     3585      489     5335
    15668        4        3        4        0      489      214      213      213     3585     3574      213     3578
    15669        4        3        4        0      215      685      684      684     3591     5999      684     3590
    15670        4        3        4        0      215      684      216      216     3590     3593      216     3589
    15671        4        3        4        0      683      218      217      217     3606     3596      217     3598
    15672        4        3        4        0      682      218      683      683     3605     3606      683     5995
    15673        4        3        4        0      681      220      219      219     3612     3608      219     3609
    15674        4        3        4        0      680      220      681      681     3611     3612      681     5986
    15675        4        3        4        0      678      221      679      679     3619     3620      679     5980
    15676        4        3        4        0      678      222      221      221     3627     3617      221     3619
    15677        4        3        4        0      677      224      223      223     3636     3629      223     3630
    15678        4        3        4        0      676      224      677      677     3635     3636      677     5973
    15679        4        3        4        0      674      225      675      675     3641     3642      675     5964
    15680        4        3        4        0      674      226      225      225     3651     3639      225     3641
    15681        4        3        4        0      672      227      673      673     3654     3655      673     5955
    15682        4        3        4        0      672      228      227      227     3658     3653      227     3654
    15683        4        3        4        0      670      229      671      671     3665     3666      671     5949
    15684        4        3        4        0      670      230      229      229     3675     3663      229     3665
    15685        4        3        4        0      668      231      669      669     3678     3679      669     5940
    15686        4        3        4        0      668      232      231      231     3683     3677      231     3678
! ... 187 like lines cut
keyo,cid,8,2               ! auto create asymmetric contact (from Program Controlled setting)
keyo,cid,10,0              ! adjust contact stiffness each NR iteration (from Program Controlled setting)
keyo,cid,12,0              ! standard contact
mp,mu,cid,0.15      ! unitless
keyo,cid,2,0               ! augmented Lagrange (from Program Controlled setting)
keyo,cid,4,0               ! on Gauss point (from Program Controlled setting)
keyo,cid,9,0               ! use real geometry with stepped effects
keyo,cid,7,1               ! Automatic Bisection
rmod,tid,3,1.       ! FKN
rmod,tid,5,0.       ! ICONT
rmod,tid,6,0.       ! PINB
rmod,tid,10,0.      ! CNOF
rmod,tid,12,0.      ! FKT
rmod,tid,36,45      ! WB DSID
rmod,cid,3,1.       ! FKN
rmod,cid,5,0.       ! ICONT
rmod,cid,6,0.       ! PINB
rmod,cid,10,0.      ! CNOF
rmod,cid,12,0.      ! FKT
rmod,cid,36,45      ! WB DSID
nsel,all
esel,all
/wb,contact,end            !  done creating contacts
/com,*********** Send Named Selection as Node Component ***********
CMBLOCK,_________,NODE,      918
(8i10)
        92        96       208       209       210       211       212       213
       214       215       216       217       218       219       220       221
       222       223       224       225       226       227       228       229
       230       231       232       233       234       235       236       237
       238       239       240       241       242       243       244       245
       246       247       248       249       250       251       252       253
       254       255       256       257       258       259       260       261
       262       263       264       265       266       267       268       269
       270       271       272       273       274       275       276       277
       278       279       280       281       282       283       284       285
       286       287       288       289       290       291       292       293
       294       295       296       297       298       299       300       301
       302       303       304       305       306       307       308       309
       310       311       312       313       314       315       316       317
       318       319       320       321       322       323       324       325
       326       327       328       329       330       331       332       333
       334       335       336       337       338       339       340       341
       342       343       344       345       346       347       348       349
       350       351       352       353       354       355       356       357
       358       359       360       361       362       363       364       365
! ... 95 like lines cut
/com,*********** Send Named Selection as Node Component ***********
CMBLOCK,_________,NODE,      518
(8i10)
     11101     11102     11104     11107     11109     11112     11113     11114
     11193     11197     11228     11230     11231     11232     11235     11236
     11237     11238     11241     11242     11243     11244     11247     11248
     11249     11250     11253     11254     11255     11256     11259     11260
     11261     11262     11265     11266     11267     11268     11271     11272
     11273     11274     11277     11278     11279     11280     11283     11284
     11285     11286     11289     11290     11291     11292     11295     11297
     11298     11299     11302     11303     11304     11305     11307     11308
     11309     11310     11312     11313     11314     11315     11317     11318
     11319     11320     11323     11324     11327     11328     11329     11332
     11333     11334     11337     11338     11339     11414     11415     11417
     11418     11419     11420     11421     11422     11423     11424     11425
     11427     11428     11429     11430     11431     11432     11433     11434
     11435     11436     11437     11438     11439     11440     11441     11442
     11443     11444     11445     11446     11447     11448     11449     11450
     11451     11452     11453     11454     11455     11456     11457     11458
     11459     11460     11461     11462     11463     11464     11465     11466
     11467     11468     11469     11470     11471     11472     11473     11474
     11475     11476     11477     11478     11479     11480     11481     11482
     11483     11484     11485     11486     11487     11488     11489     11490
! ... 45 like lines cut
/golist
/wb,load,start             !  starting to send loads
/com,*********** Create Remote Point "内部远程点 2" ***********
! -------- Remote Point Used by "回转 - 接地 至 主动轮1" --------
*set,tid,6
*set,cid,5
et,cid,174
et,tid,170
keyo,tid,2,1               ! Don't fix the pilot node
keyo,tid,4,0               ! Activate all DOF's due to large deformation
keyo,cid,12,5              ! Bonded Contact 
keyo,cid,4,2               ! Rigid CERIG style load
keyo,cid,2,2               ! MPC style contact
eblock,10,,,77
(15i9)
    15873        5        5        5        0    11184    12387    11834    11834    13143    17340    11834    13136
    15874        5        5        5        0    11182    11180    11830    11830    13110    13114    11830    13122
    15875        5        5        5        0    11181    11182    11831    11831    13116    13123    11831    13119
    15876        5        5        5        0    11190    11188    11832    11832    13174    13179    11832    13198
    15877        5        5        5        0    11189    11190    11833    11833    13183    13199    11833    13189
    15878        5        5        5        0    11179    11177    11184    11184    13083    13084    11184    13101
    15879        5        5        5        0    11180    11179    11830    11830    13100    13104    11830    13114
    15880        5        5        5        0    11187    11186    11192    11192    13152    13153    11192    13164
    15881        5        5        5        0    11188    11187    11832    11832    13163    13170    11832    13179
    15882        5        5        5        0    11189    11833    12366    12366    13189    17333    12366    13193
    15883        5        5        5        0    11192    11191    11835    11835    13203    13208    11835    13219
    15884        5        5        5        0    11182    11830    11831    11831    13122    17315    11831    13123
    15885        5        5        5        0    11181    11831    11178    11178    13119    13098    11178    13092
    15886        5        5        5        0    11190    11832    11833    11833    13198    17328    11833    13199
    15887        5        5        5        0    11183    12366    11185    11185    13133    13149    11185    13124
    15888        5        5        5        0    11179    11184    11836    11836    13101    13137    11836    13105
    15889        5        5        5        0    11830    11179    11836    11836    13104    13105    11836    17316
    15890        5        5        5        0    11187    11192    11837    11837    13164    13220    11837    13171
    15891        5        5        5        0    11832    11187    11837    11837    13170    13171    11837    17329
    15892        5        5        5        0    11184    11834    11836    11836    13136    17335    11836    13137
! ... 58 like lines cut
*set,_npilot,19294
_npilot51=_npilot
type,tid
mat ,cid
real,cid
tshape,pilo
en,15950,_npilot
tshape
/com,*********** Create Remote Point "内部远程点 4" ***********
! -------- Remote Point Used by "回转 - 接地 至 从动轮2" --------
*set,tid,8
*set,cid,7
et,cid,174
et,tid,170
keyo,tid,2,1               ! Don't fix the pilot node
keyo,tid,4,0               ! Activate all DOF's due to large deformation
keyo,cid,12,5              ! Bonded Contact 
keyo,cid,4,2               ! Rigid CERIG style load
keyo,cid,2,2               ! MPC style contact
eblock,10,,,95
(15i9)
    15951        7        7        7        0       78      891     1156     1156     2515     7483     1156     2517
    15952        7        7        7        0       89       73      903      903     2487     2491      903     2545
    15953        7        7        7        0       88       72      902      902     2479     2483      902     2541
    15954        7        7        7        0       87       71      901      901     2472     2476      901     2537
    15955        7        7        7        0       86       70      900      900     2466     2470      900     2535
    15956        7        7        7        0       85       69      899      899     2458     2462      899     2531
    15957        7        7        7        0       84       68      898      898     2451     2455      898     2529
    15958        7        7        7        0       83       67      897      897     2444     2448      897     2527
    15959        7        7        7        0       82       66      896      896     2436     2440      896     2525
    15960        7        7        7        0       81       65      895      895     2429     2433      895     2523
    15961        7        7        7        0       80       64      894      894     2421     2425      894     2521
    15962        7        7        7        0       79       63      893      893     2412     2416      893     2519
    15963        7        7        7        0      891       77       60       60     2513     2382       60     2388
    15964        7        7        7        0      904       90       74       74     2548     2495       74     2499
    15965        7        7        7        0      892       78     1156     1156     2516     2517     1156     7485
    15966        7        7        7        0      905       91       75       75     2551     2503       75     2507
    15967        7        7        7        0       76      905       61       61     2511     2398       61     2393
    15968        7        7        7        0       60       62     1156     1156     2381     2409     1156     2390
    15969        7        7        7        0       62       63      892      892     2405     2415      892     2408
    15970        7        7        7        0       63       64      893      893     2411     2424      893     2416
! ... 76 like lines cut
*set,_npilot,19296
_npilot59=_npilot
type,tid
mat ,cid
real,cid
tshape,pilo
en,16046,_npilot
tshape
csys,13
nrot,19296
csys,0
/com,*********** Create Joint "回转 - 接地 至 主动轮1" ***********
/com,            Real Constant Set For Above Joint Is 9
! Joint Element Type Declaration and Definition using MPC184
*set,_jid,9
et,_jid,184
keyo,_jid,1,6           ! Revolute Joint
keyo,_jid,4,1           ! Z Axis is revolute axis
sectype,_jid, joint, revo, _wbjoint
secjoint,,12,12
mat,_jid
real,_jid
type,_jid
secnum,_jid
en,15187,,19294        ! body to ground joint
/com,*********** Create Joint "回转 - 接地 至 从动轮2" ***********
/com,            Real Constant Set For Above Joint Is 10
! Joint Element Type Declaration and Definition using MPC184
*set,_jid,10
et,_jid,184
keyo,_jid,1,6           ! Revolute Joint
keyo,_jid,4,1           ! Z Axis is revolute axis
sectype,_jid, joint, revo, _wbjoint
secjoint,,13,13
mat,_jid
real,_jid
type,_jid
secnum,_jid
en,15188,,19296        ! body to ground joint
et,11,14             ! spring element type
/com,*********** Construct Weak Springs, Prototype 1 ***********
*set,_delta,1.44880000075847e-002
type,11
mat,12
real,12
r,12,5.91609964081856e-003
nsel,all
*get,_nspr,ndmx
_nspr=_nspr+1
esel,s,type,,1
nsle,s,active
*get,_minx,node,0,mnloc,x
*get,_miny,node,0,mnloc,y
*get,_minz,node,0,mnloc,z
*get,_maxx,node,0,mxloc,x
*get,_maxy,node,0,mxloc,y
*get,_maxz,node,0,mxloc,z
*dim,_ntets,arra,8
_ntets(1) = NODE(_minx,_miny,_minz)
_ntets(2) = NODE(_minx,_miny,_maxz)
_ntets(3) = NODE(_minx,_maxy,_minz)
_ntets(4) = NODE(_minx,_maxy,_maxz)
_ntets(5) = NODE(_maxx,_miny,_minz)
_ntets(6) = NODE(_maxx,_miny,_maxz)
_ntets(7) = NODE(_maxx,_maxy,_minz)
_ntets(8) = NODE(_maxx,_maxy,_maxz)
*do,_i,1,8
  n,_nspr,nx(_ntets(_i))+_delta,ny(_ntets(_i)),nz(_ntets(_i))
  e,_ntets(_i),_nspr
  d,_nspr,all
  _nspr=_nspr+1
  n,_nspr,nx(_ntets(_i)),ny(_ntets(_i))+_delta,nz(_ntets(_i))
  e,_ntets(_i),_nspr
  d,_nspr,all
  _nspr=_nspr+1
  n,_nspr,nx(_ntets(_i)),ny(_ntets(_i)),nz(_ntets(_i))+_delta
  e,_ntets(_i),_nspr
  d,_nspr,all
  _nspr=_nspr+1
*enddo
*set,_ntets
nsel,all
esel,all
/com,*********** Construct Weak Springs, Prototype 2 ***********
*set,_delta,3.91536996272063e-003
type,11
mat,13
real,13
r,13,2.28634736911471e-003
nsel,all
*get,_nspr,ndmx
_nspr=_nspr+1
esel,s,type,,2
nsle,s,active
*get,_minx,node,0,mnloc,x
*get,_miny,node,0,mnloc,y
*get,_minz,node,0,mnloc,z
*get,_maxx,node,0,mxloc,x
*get,_maxy,node,0,mxloc,y
*get,_maxz,node,0,mxloc,z
*dim,_ntets,arra,8
_ntets(1) = NODE(_minx,_miny,_minz)
_ntets(2) = NODE(_minx,_miny,_maxz)
_ntets(3) = NODE(_minx,_maxy,_minz)
_ntets(4) = NODE(_minx,_maxy,_maxz)
_ntets(5) = NODE(_maxx,_miny,_minz)
_ntets(6) = NODE(_maxx,_miny,_maxz)
_ntets(7) = NODE(_maxx,_maxy,_minz)
_ntets(8) = NODE(_maxx,_maxy,_maxz)
*do,_i,1,8
  n,_nspr,nx(_ntets(_i))+_delta,ny(_ntets(_i)),nz(_ntets(_i))
  e,_ntets(_i),_nspr
  d,_nspr,all
  _nspr=_nspr+1
  n,_nspr,nx(_ntets(_i)),ny(_ntets(_i))+_delta,nz(_ntets(_i))
  e,_ntets(_i),_nspr
  d,_nspr,all
  _nspr=_nspr+1
  n,_nspr,nx(_ntets(_i)),ny(_ntets(_i)),nz(_ntets(_i))+_delta
  e,_ntets(_i),_nspr
  d,_nspr,all
  _nspr=_nspr+1
*enddo
*set,_ntets
nsel,all
esel,all
/com,*********** Create Joint Drivers **********

*DIM,_loadvari73,TABLE,2,1,1,TIME
! Time values
*TAXIS,_loadvari73(1),1,0.,1.
! Load values
_loadvari73(1,1,1) = 0.
_loadvari73(2,1,1) = 3.14


/gst,on,on
fini
*get,_numnode,node,0,count
*get,_numelem,elem,0,count
*get, _MAXELEMNUM, elem, 0, NUM, MAX
*get, _MAXNODENUM, node, 0, NUM, MAX
*get, _MAXELEMTYPE, etyp, 0, NUM, MAX
*get, _MAXREALCONST, real, 0, NUM, MAX
/go
/wb,load,end               !  done creating loads
/com,--- Number of total nodes = %_numnode%
/com,--- Number of contact elements = 852
/com,--- Number of spring elements = 48
/com,--- Number of bearing elements = 0
/com,--- Number of solid elements = 10754
/com,--- Number of condensed parts = 0
/com,--- Number of total elements = %_numelem%
*get,_wallbsol,active,,time,wall
/com,****************************************************************************
/com,*************************    SOLUTION       ********************************
/com,****************************************************************************
/solu
antype,4                   ! transient analysis
nlgeom,on                  ! Turn on Large Deformation Effects
kbc,1                      ! stepped BC's
_thickRatio=  1     ! Ratio of thick parts in the model
eqsl,pcg,1e-8,,,,,,1
cntr,print,1               ! print out contact info and also make no initial contact an error
dmpoption,emat,no             ! Don't combine emat file for DANSYS
dmpoption,esav,no             ! Don't combine esav file for DANSYS
trnopt,full,,,,,hht        ! HHT time integration method
tintp, mosp			! Choose transient integration settings for moderate speed application
nldiag,cont,iter           ! print out contact info each equilibrium iteration
rescontrol,define,last,last,,dele	   ! Program Controlled
/com,****************************************************
/com,******************* SOLVE FOR LS 1 OF 1 ****************
/nopr
/gopr
esel,s,type,,9
dj,all,omgz,%_loadvari73%
esel,all
esel,s,type,,10
fj,all,mz,3.5
esel,all
autots,on                   ! User turned on automatic time stepping
nsub,5,10,2,OFF
time,1.
timint,on                  ! Turn on time integration effects
outres,erase
outres,all,none
outres,nsol,all,
outres,rsol,all
outres,eangl,all
outres,etmp,all
outres,veng,all
outres,strs,all,
outres,epel,all,
outres,eppl,all,
outres,cont,all,
outres,v,all,
outres,a,all,
/nopr
esel,s,type,,9
esel,a,type,,10
cm,_elmisc,elem
esel,all
/gopr
outres,misc,all,_elmisc
! *********** WB SOLVE COMMAND ***********
! check interactive state
*get,ANSINTER_,active,,int
*if,ANSINTER_,ne,0,then
/eof
*endif
solve
/com *************** Write FE CONNECTORS ********* 
CEWRITE,file,ce,,INTE
/com,****************************************************
/com,*************** FINISHED SOLVE FOR LS 1 *************
*get,_wallasol,active,,time,wall
/nopr
*get,_numnode,node,0,count
*get,_numelem,elem,0,count
*get, _MAXELEMNUM, elem, 0, NUM, MAX
*get, _MAXNODENUM, node, 0, NUM, MAX,,,INTERNAL
*get, _MAXELEMTYPE, etyp, 0, NUM, MAX
*get, _MAXREALCONST, real, 0, NUM, MAX
/gopr
*get,_PCGITER,active,,solu,cgiter
/post1
xmlo,ENCODING,ISO-8859-1
xmlo,parm
/xml,parm,xml
fini
/gopr
*get,_walldone,active,,time,wall
_preptime=(_wallbsol-_wallstrt)*3600
_solvtime=(_wallasol-_wallbsol)*3600
_posttime=(_walldone-_wallasol)*3600
_totaltim=(_walldone-_wallstrt)*3600
*get,_dlbratio,active,0,solu,dlbr
*get,_combtime,active,0,solu,comb
*get,_ssmode,active,0,solu,ssmm
*get,_ndofs,active,0,solu,ndof
*get,_sol_end_time,active,0,set,time
*if,_sol_end_time,eq,1.000000,then
/fclean				!clean distributed files
*endif
/com,--- Total number of nodes = %_numnode%
/com,--- Total number of elements = %_numelem%
/com,--- Element load balance ratio = %_dlbratio%
/com,--- Time to combine distributed files = %_combtime%
/com,--- Sparse memory mode = %_ssmode%
/com,--- Number of DOF = %_ndofs%
/wb,file,end               ! done with WB generated input
