/batch
/config,noeldb,1     ! force off writing results to database
*get,_wallstrt,active,,time,wall
! ANSYS input file written by Workbench version 2022 R1
! File used for geometry attach: F:\墨然的需要\学科竞赛和科研\水下机器人及推进器项目\毕业设计\Ansys校核\受压关键零件校核.STEP
/title,______--____ (A5)
! ****** Begin Custom Load Command Snippet ******
/COM, ACT Extensions:
/COM,     LSDYNA, 2021.1
/COM,     5f463412-bd3e-484b-87e7-cbc0a665e474, wbex
/COM,
! ****** End   Custom Load Command Snippet ******
*DIM,_wb_ProjectScratch_dir,string,248
_wb_ProjectScratch_dir(1) = 'F:\墨然的需要\学科竞赛和科研\水下机器人及推进器项目\毕业设计\Ansys校核\_ProjectScratch\Scr5B4D\'
*DIM,_wb_SolverFiles_dir,string,248
_wb_SolverFiles_dir(1) = 'F:\墨然的需要\学科竞赛和科研\水下机器人及推进器项目\毕业设计\Ansys校核\关键零件校核_files\dp0\SYS\MECH\'
*DIM,_wb_userfiles_dir,string,248
_wb_userfiles_dir(1) = 'F:\墨然的需要\学科竞赛和科研\水下机器人及推进器项目\毕业设计\Ansys校核\关键零件校核_files\user_files\'
/com,--- Data in consistent MKS units. See Solving Units in the help system for more information.
/units,MKS
/nopr
/wb,file,start              !  signify a WB generated input file
/prep7
! Turn off shape checking because checks already performed inside WB mesher.
! See help system for more information.
SHPP,OFF,,NOWARN
/nolist
etcon,set             ! allow ANSYS to choose best KEYOP's for 180x elements, resets any applicable keyopt to MAPDL defaults
/com,*********** Nodes for the whole assembly ***********
nblock,3,,9575
(1i9,3e20.9e3)
        1     0.000000000E+00     3.500000000E-02    -1.000000000E-02
        2     1.224646799E-18     3.500000000E-02     1.000000000E-02
        3     1.224646799E-18     5.000000000E-03     1.000000000E-02
        4    -5.267826876E-03     5.000000000E-03     8.500000000E-03
        5    -5.267826876E-03     1.500000000E-02     8.500000000E-03
        6    -5.267826876E-03     1.500000000E-02    -8.500000000E-03
        7    -5.267826876E-03     5.000000000E-03    -8.500000000E-03
        8     0.000000000E+00     5.000000000E-03    -1.000000000E-02
        9     1.469576159E-18     3.100000000E-02    -1.200000000E-02
       10     1.469576159E-18     3.500000000E-02    -1.200000000E-02
       11     0.000000000E+00     3.500000000E-02     1.200000000E-02
       12     4.104241720E-03     3.500000000E-02     1.127631145E-02
       13     7.713451316E-03     3.500000000E-02     9.192533317E-03
       14     1.039230485E-02     3.500000000E-02     6.000000000E-03
       15     1.181769304E-02     3.500000000E-02     2.083778132E-03
       16     1.181769304E-02     3.500000000E-02    -2.083778132E-03
       17     1.039230485E-02     3.500000000E-02    -6.000000000E-03
       18     7.713451316E-03     3.500000000E-02    -9.192533317E-03
       19     4.104241720E-03     3.500000000E-02    -1.127631145E-02
       20     0.000000000E+00     3.100000000E-02     1.200000000E-02
! ... 8686 like lines cut
/wb,elem,start            !  set before creation of elements
/com,*********** Elements for Body 1 "________-FreeParts|____-____3" ***********
et,1,187
eblock,19,solid,,5106
(19i9)
        1        1        1        1        0        0        0        0       10        0        1      714     1145     1334     1315     6316     8369     6321     6319
     8368     8699
        1        1        1        1        0        0        0        0       10        0        2      714      974     1334     1145     6315     7758     6321     6316
     7753     8369
        1        1        1        1        0        0        0        0       10        0        3      713      714     1334     1332     6303     6321     6312     6311
     6320     8705
        1        1        1        1        0        0        0        0       10        0        4      713     1334      714     1238     6312     6321     6303     6309
     8627     6317
        1        1        1        1        0        0        0        0       10        0        5      714     1334      974     1238     6321     7758     6315     6317
     8627     7756
        1        1        1        1        0        0        0        0       10        0        6      974     1334      982     1238     7758     7799     7750     7756
     8627     7798
        1        1        1        1        0        0        0        0       10        0        7      313     1334      713     1238     3778     6312     3767     3775
     8627     6309
        1        1        1        1        0        0        0        0       10        0        8      714     1315     1334     1332     6319     8699     6321     6320
     8698     8705
        1        1        1        1        0        0        0        0       10        0        9      314     1334      982      990     3793     7799     3786     3787
     7837     7792
        1        1        1        1        0        0        0        0       10        0       10      615     1333      917     1091     5641     7450     5633     5636
     8131     7442
! ... 10193 like lines cut
!Material Id = {C215595F-4828-4774-90AB-82E5838E71CE}
/wb,elem,end               !  done creating elements
/com,*********** Send User Defined Coordinate System(s) ***********
csys,0
toffst,273.15,  ! Temperature offset from absolute zero
/com,*********** Set Reference Temperature ***********
tref,22.
/wb,mat,start              !  starting to send materials
/com,*********** Send Materials ***********
Temperature = 'TEMP' ! Temperature
MP,DENS,1,2770,	! kg m^-3
MP,ALPX,1,2.3e-05,	! C^-1
MP,C,1,875,	! J kg^-1 C^-1
MPTEMP,,,,,,,,
MPTEMP,1,-100
MPTEMP,2,0
MPTEMP,3,100
MPTEMP,4,200
MPDATA,KXX,1, ,114,144,165,175,	! W m^-1 C^-1
MPTEMP,,,,,,,,
MPTEMP,,,,,,,,
MPTEMP,1,0
MPTEMP,2,20
MPTEMP,3,100
MPDATA,RSVX,1, ,2.43e-08,2.67e-08,3.63e-08,	! kg m^3 A^-2 s^-3
MPTEMP,,,,,,,,
MP,EX,1,71000000000,	! Pa
MP,NUXY,1,0.33,
MP,MURX,1,1,
MP,UVID,1,d46426bb-5754-4c2d-b119-0edb1e601a6c
MP,UMID,1,35d48138-be0c-4a97-839b-6fba81b9f834

/wb,mat,end                !  done sending materials
!************************* Model Summary ********************
!________-FreeParts|____-____3,	铝合金,	matid,	1
!************************* End Model Summary ********************
! get the diagonal of the bounding box. Needed later for other things
*get,_xmin,node,,mnloc,x
*get,_ymin,node,,mnloc,y
*get,_zmin,node,,mnloc,z
*get,_xmax,node,,mxloc,x
*get,_ymax,node,,mxloc,y
*get,_zmax,node,,mxloc,z
_ASMDIAG=(_xmax-_xmin)*(_xmax-_xmin)+(_ymax-_ymin)*(_ymax-_ymin)+(_zmax-_zmin)*(_zmax-_zmin)
_ASMDIAG=SQRT(_ASMDIAG)
/wb,contact,start          !  starting to send contact
/wb,contact,end            !  done creating contacts
/golist
/wb,load,start             !  starting to send loads
/com,*********** Fixed Supports ***********
CMBLOCK,_FIXEDSU,NODE,      549
(8i10)
        57        58        59        60        65        66        67        68
        73        74        75        76        79        80        85        86
        87        88        93        94        95        96       101       102
       103       104       121       122       123       124       125       126
       127       128       129       130       131       132       357       358
       359       360       361       362       363       364       365       366
       367       368       369       370       371       372       373       374
       375       376       511       512       513       514       515       516
       517       518       519       520       521       522       523       524
       525       526       527       528       529       530       827       828
       829       830       831       832       833       834       835       836
       837       838       839       840       841       842       843       844
       845       846       847       848       849       850       851       852
       853       854       855       856       857       858       859       860
       861       862       863       864       865       866       867       868
       869       870       871       872       873       874       875       876
       877       878       879       880       881       882       883       884
       885       886       887       888       889       890       891       892
       893       894       895       896       897       898       899       900
       901      1805      1806      1808      1809      1810      1811      1812
! ... 49 like lines cut
cmsel,s,_FIXEDSU
d,all,all
nsel,all
/com,*********** Define Pressure Using Surface Effect Elements "__" ***********
et,2,154
eblock,10,,,142
(15i9)
     6949        2        2        2        0       48      272      271      271     1715     3436      271     1714
     6950        2        2        2        0       47      272       48       48     1709     1715       48     1708
     6951        2        2        2        0       46       48      271      271     1700     1714      271     1702
     6952        2        2        2        0      119      486      120      120     2270     2275      120     2269
     6953        2        2        2        0       41      269       43       43     1663     1678       43     1661
     6954        2        2        2        0      114      605      604      604     2232     5527      604     2231
     6955        2        2        2        0       33      114      604      604     1605     2231      604     1606
     6956        2        2        2        0       43      269      268      268     1678     3417      268     1677
     6957        2        2        2        0       36      410      411      411     1625     4393      411     1626
     6958        2        2        2        0       35      410       36       36     1620     1625       36     1619
     6959        2        2        2        0       34       36      411      411     1611     1626      411     1613
     6960        2        2        2        0      113      605      114      114     2228     2232      114     2227
     6961        2        2        2        0       42      482      117      117     1671     2257      117     1670
     6962        2        2        2        0      117      482      483      483     2257     4964      483     2258
     6963        2        2        2        0      117      483      118      118     2258     2260      118     2256
     6964        2        2        2        0       43      268       44       44     1677     1681       44     1676
     6965        2        2        2        0       24      116      266      266     1544     2247      266     1546
     6966        2        2        2        0       24      607       39       39     1547     1647       39     1543
     6967        2        2        2        0       24       39       37       37     1543     1633       37     1542
     6968        2        2        2        0       24       37      116      116     1542     1634      116     1544
! ... 123 like lines cut
esel,s,type,,2
keyop,2,7,0                ! Use deformed area for application of load
esel,all
/com,*********** Define Force Using Surface Effect Elements ***********
local,12,0,0.,0.,0.,0.,0.,0.
csys,0
et,3,154
eblock,10,,,238
(15i9)
     7091        3        3        3       12      718      740      760      760     6355     6527      760     6356
     7092        3        3        3       12      718      764      740      740     6357     6528      740     6355
     7093        3        3        3       12      726      747      731      731     6428     6463      731     6426
     7094        3        3        3       12       90      531      135      135     2052     2398      135     2047
     7095        3        3        3       12      721      729      730      730     6380     6450      730     6381
     7096        3        3        3       12      718      730      729      729     6352     6450      729     6351
     7097        3        3        3       12       51      295       89       89     1755     2041       89     1753
     7098        3        3        3       12       89      295       91       91     2041     2057       91     2039
     7099        3        3        3       12       89      136      587      587     2040     2405      587     2042
     7100        3        3        3       12      725      749      728      728     6418     6440      728     6415
     7101        3        3        3       12       77      531       90       90     1959     2052       90     1955
     7102        3        3        3       12       62      535      536      536     1841     5235      536     1842
     7103        3        3        3       12      739      756      772      772     6521     6621      772     6522
     7104        3        3        3       12      718      729      732      732     6351     6451      732     6353
     7105        3        3        3       12      735      766      751      751     6491     6592      751     6490
     7106        3        3        3       12      723      742      734      734     6399     6480      734     6398
     7107        3        3        3       12      721      739      772      772     6382     6522      772     6384
     7108        3        3        3       12      722      770      738      738     6394     6515      738     6391
     7109        3        3        3       12      738      770      755      755     6515     6616      755     6514
     7110        3        3        3       12      721      746      739      739     6383     6520      739     6382
! ... 219 like lines cut
esel,s,type,,3
keyop,3,2,1                ! Apply load in local coordinate system
keyop,3,7,1                ! Use original area so load is constant in large deformation
esel,all
/com,*********** Define Force Using Surface Effect Elements ***********
local,13,0,0.,0.,0.,0.,0.,0.
csys,0
et,4,154
eblock,10,,,238
(15i9)
     7329        4        4        4       13      718      740      760      760     6355     6527      760     6356
     7330        4        4        4       13      718      764      740      740     6357     6528      740     6355
     7331        4        4        4       13      726      747      731      731     6428     6463      731     6426
     7332        4        4        4       13       90      531      135      135     2052     2398      135     2047
     7333        4        4        4       13      721      729      730      730     6380     6450      730     6381
     7334        4        4        4       13      718      730      729      729     6352     6450      729     6351
     7335        4        4        4       13       51      295       89       89     1755     2041       89     1753
     7336        4        4        4       13       89      295       91       91     2041     2057       91     2039
     7337        4        4        4       13       89      136      587      587     2040     2405      587     2042
     7338        4        4        4       13      725      749      728      728     6418     6440      728     6415
     7339        4        4        4       13       77      531       90       90     1959     2052       90     1955
     7340        4        4        4       13       62      535      536      536     1841     5235      536     1842
     7341        4        4        4       13      739      756      772      772     6521     6621      772     6522
     7342        4        4        4       13      718      729      732      732     6351     6451      732     6353
     7343        4        4        4       13      735      766      751      751     6491     6592      751     6490
     7344        4        4        4       13      723      742      734      734     6399     6480      734     6398
     7345        4        4        4       13      721      739      772      772     6382     6522      772     6384
     7346        4        4        4       13      722      770      738      738     6394     6515      738     6391
     7347        4        4        4       13      738      770      755      755     6515     6616      755     6514
     7348        4        4        4       13      721      746      739      739     6383     6520      739     6382
! ... 219 like lines cut
esel,s,type,,4
keyop,4,2,1                ! Apply load in local coordinate system
keyop,4,7,1                ! Use original area so load is constant in large deformation
esel,all
/com,*********** Define Force Using Surface Effect Elements ***********
local,14,0,0.,0.,0.,0.,0.,0.
csys,0
et,5,154
eblock,10,,,238
(15i9)
     7567        5        5        5       14      718      740      760      760     6355     6527      760     6356
     7568        5        5        5       14      718      764      740      740     6357     6528      740     6355
     7569        5        5        5       14      726      747      731      731     6428     6463      731     6426
     7570        5        5        5       14       90      531      135      135     2052     2398      135     2047
     7571        5        5        5       14      721      729      730      730     6380     6450      730     6381
     7572        5        5        5       14      718      730      729      729     6352     6450      729     6351
     7573        5        5        5       14       51      295       89       89     1755     2041       89     1753
     7574        5        5        5       14       89      295       91       91     2041     2057       91     2039
     7575        5        5        5       14       89      136      587      587     2040     2405      587     2042
     7576        5        5        5       14      725      749      728      728     6418     6440      728     6415
     7577        5        5        5       14       77      531       90       90     1959     2052       90     1955
     7578        5        5        5       14       62      535      536      536     1841     5235      536     1842
     7579        5        5        5       14      739      756      772      772     6521     6621      772     6522
     7580        5        5        5       14      718      729      732      732     6351     6451      732     6353
     7581        5        5        5       14      735      766      751      751     6491     6592      751     6490
     7582        5        5        5       14      723      742      734      734     6399     6480      734     6398
     7583        5        5        5       14      721      739      772      772     6382     6522      772     6384
     7584        5        5        5       14      722      770      738      738     6394     6515      738     6391
     7585        5        5        5       14      738      770      755      755     6515     6616      755     6514
     7586        5        5        5       14      721      746      739      739     6383     6520      739     6382
! ... 219 like lines cut
esel,s,type,,5
keyop,5,2,1                ! Apply load in local coordinate system
keyop,5,7,1                ! Use original area so load is constant in large deformation
esel,all
esel,all
/gst,on,on
fini
*get,_numnode,node,0,count
*get,_numelem,elem,0,count
*get, _MAXELEMNUM, elem, 0, NUM, MAX
*get, _MAXNODENUM, node, 0, NUM, MAX
*get, _MAXELEMTYPE, etyp, 0, NUM, MAX
*get, _MAXREALCONST, real, 0, NUM, MAX
/go
/wb,load,end               !  done creating loads
/com,--- Number of total nodes = %_numnode%
/com,--- Number of contact elements = 856
/com,--- Number of spring elements = 0
/com,--- Number of bearing elements = 0
/com,--- Number of solid elements = 5106
/com,--- Number of condensed parts = 0
/com,--- Number of total elements = %_numelem%
*get,_wallbsol,active,,time,wall
/com,****************************************************************************
/com,*************************    SOLUTION       ********************************
/com,****************************************************************************
/solu
antype,0                   ! static analysis
_thickRatio=  1     ! Ratio of thick parts in the model
eqsl,pcg,1e-8,,,,,,1
cntr,print,1               ! print out contact info and also make no initial contact an error
dmpoption,emat,no             ! Don't combine emat file for DANSYS
dmpoption,esav,no             ! Don't combine esav file for DANSYS
nldiag,cont,iter           ! print out contact info each equilibrium iteration
rescontrol,,none                 ! Do not keep any restart files
/com,****************************************************
/com,******************* SOLVE FOR LS 1 OF 1 ****************
esel,s,type,,2
nsle
sf,all,pres,107265.
nsel,all
esel,all
esel,s,type,,3
nsle
sfe,all,1,pres,1,0.
sfe,all,2,pres,1,-1303764.5669338
sfe,all,3,pres,1,0.
esel,s,type,,4
nsle
sfe,all,1,pres,1,0.
sfe,all,2,pres,1,-1303764.5669338
sfe,all,3,pres,1,0.
esel,s,type,,5
nsle
sfe,all,1,pres,1,0.
sfe,all,2,pres,1,-1303764.5669338
sfe,all,3,pres,1,0.
nsel,all
esel,all
acel,0.,9.80665,0.
esel,all
/nopr
/gopr
nsub,1,1,1
time,1.
outres,erase
outres,all,none
outres,nsol,all,
outres,rsol,all
outres,eangl,all
outres,etmp,all
outres,veng,all
outres,strs,all,
outres,epel,all,
outres,eppl,all,
outres,cont,all,
! *********** WB SOLVE COMMAND ***********
! check interactive state
*get,ANSINTER_,active,,int
*if,ANSINTER_,ne,0,then
/eof
*endif
solve
/com *************** Write FE CONNECTORS ********* 
CEWRITE,file,ce,,INTE
/com,****************************************************
/com,*************** FINISHED SOLVE FOR LS 1 *************
*get,_wallasol,active,,time,wall
/nopr
*get,_numnode,node,0,count
*get,_numelem,elem,0,count
*get, _MAXELEMNUM, elem, 0, NUM, MAX
*get, _MAXNODENUM, node, 0, NUM, MAX,,,INTERNAL
*get, _MAXELEMTYPE, etyp, 0, NUM, MAX
*get, _MAXREALCONST, real, 0, NUM, MAX
/gopr
*get,_PCGITER,active,,solu,cgiter
/post1
xmlo,ENCODING,ISO-8859-1
xmlo,parm
/xml,parm,xml
fini
/gopr
*get,_walldone,active,,time,wall
_preptime=(_wallbsol-_wallstrt)*3600
_solvtime=(_wallasol-_wallbsol)*3600
_posttime=(_walldone-_wallasol)*3600
_totaltim=(_walldone-_wallstrt)*3600
*get,_dlbratio,active,0,solu,dlbr
*get,_combtime,active,0,solu,comb
*get,_ssmode,active,0,solu,ssmm
*get,_ndofs,active,0,solu,ndof
*get,_sol_end_time,active,0,set,time
*if,_sol_end_time,eq,1.000000,then
/fclean				!clean distributed files
*endif
/com,--- Total number of nodes = %_numnode%
/com,--- Total number of elements = %_numelem%
/com,--- Element load balance ratio = %_dlbratio%
/com,--- Time to combine distributed files = %_combtime%
/com,--- Sparse memory mode = %_ssmode%
/com,--- Number of DOF = %_ndofs%
/wb,file,end               ! done with WB generated input
